*HEADING
**pyCM input deck, converted from VTK format
**C:/git/pyCM/data/Nik_left.abq.inp
*NODE
1,0.971000,4.815500,1.000000
2,2.729121,4.566652,1.000000
3,2.697256,5.491200,1.000000
4,0.969400,5.004600,1.000000
5,0.971000,4.815500,2.913287
6,2.729121,4.566652,2.913287
7,2.697256,5.491200,2.913287
8,0.969400,5.004600,2.913287
9,2.754714,3.193229,1.000000
10,0.963600,2.849100,1.000000
11,2.754714,3.193229,2.913287
12,0.963600,2.849100,2.913287
13,3.453500,1.005100,1.000000
14,3.159452,2.052941,1.000000
15,0.952900,1.433200,1.000000
16,1.269600,0.911900,1.000000
17,3.453500,1.005100,2.913287
18,3.159452,2.052941,2.913287
19,0.952900,1.433200,2.913287
20,1.269600,0.911900,2.913287
** ... 39514 like lines cut
*ELEMENT, TYPE=C3D8
1,1,2,3,4,5,6,7,8
2,9,2,1,10,11,6,5,12
3,13,14,15,16,17,18,19,20
4,9,10,15,14,11,12,19,18
5,21,22,23,24,25,26,27,28
6,29,30,31,32,33,34,35,36
7,32,37,38,29,36,39,40,33
8,41,42,43,44,45,46,47,48
9,49,50,51,52,53,54,55,56
10,57,58,59,60,61,62,63,64
11,65,66,67,68,69,70,71,72
12,73,74,75,76,77,78,79,80
13,81,82,83,84,85,86,87,88
14,89,90,91,92,93,94,95,96
15,97,98,99,100,101,102,103,104
16,105,106,107,108,109,110,111,112
17,113,114,115,116,117,118,119,120
18,121,122,123,124,125,126,127,128
19,129,130,131,132,133,134,135,136
20,137,123,138,131,139,127,140,135
** ... 34480 like lines cut
*ELSET, ELSET=DOMAIN, GENERATE
1,34500,1
*ELSET, ELSET=BC
4884,4881,4873,3791,4886,3790,3789,4878,4891,4874,4876,4882,4893,4877,3770,3772
3769,4887,3771,4872,4888,4892,4885,4895,4901,3774,4900,3773,5091,4894,4857,6755
5092,4918,4870,5370,5358,5093,5330,5325,6757,5052,3766,3767,3768,4959,5083,5353
4856,5430,4865,4855,5150,3775,4998,4835,5017,3777,3776,4999,5084,5184,5334,4858
5365,4834,4815,4836,5186,5413,5414,5725,4833,5429,5498,5649,5663,4845,5500,5501
4814,4813,4823,5650,5818,5662,3690,3683,3684,3688,3792,3687,3686,5013,5012,3685
3689,4590,5079,5064,4816,3682,5187,3778,5337,5331,5188,4577,5338,4803,4588,4785
5343,5190,5493,5491,4794,3779,5490,5499,4795,3681,5497,4784,5492,4765,5496,4576
5495,4793,4802,5523,5722,5723,4775,6788,5724,5679,3780,4764,6807,3680,6809,4776
4869,5189,5183,5042,4864,3765,5364,5040,4854,3763,3762,3764,5236,3761,4914,3760
5077,4923,5125,4863,5235,5352,4853,5388,5383,5434,5180,4832,4831,5471,5462,4844
5755,5539,5651,4822,5756,5759,5664,4843,5627,5432,5431,4830,5524,5682,6779,6771
4842,6770,4820,4811,5720,5758,5739,6789,6777,6778,4810,6780,5930,4801,4812,6083
5832,5721,5909,5757,5749,5680,6796,6795,4774,5747,5980,5911,6014,6031,5926,6082
4821,4800,4791,6318,4792,4773,6289,6825,6821,6817,5922,6839,5748,6021,5910,5648
4758,6047,4759,5921,6820,5750,6136,6137,4772,4756,4783,6265,6324,4757,6332,6111
5984,4763,6453,6244,6569,3758,3759,4868,4915,3756,3757,5088,4922,4867,3753,3755
3754,4931,6763,5389,4862,6762,4852,5257,5503,4851,5273,4861,5302,5301,4860,5300
4850,4849,5424,5782,5992,4841,5683,4829,5769,6790,5513,4840,5776,5541,5540,5823
4828,4827,5537,5990,5916,5538,4839,5833,4826,5764,5528,5527,4808,4819,5993,6216
** ... 412 like lines cut
*SOLID SECTION, ELSET=DOMAIN, MATERIAL=USERSPEC
*MATERIAL, NAME=USERSPEC
*ELASTIC, TYPE=ISO
 200000,0.300
*STEP, NAME=CONFORM
*STATIC
*BOUNDARY
6393, 1,2, 0
15, 2, 0
*BOUNDARY
1753, 3,, 0.063592
1767, 3,, 0.063065
1770, 3,, 0.063065
6401, 3,, 0.063399
1756, 3,, 0.063970
6388, 3,, 0.063388
6387, 3,, 0.062983
1768, 3,, 0.063065
1769, 3,, 0.063065
6395, 3,, 0.064555
1755, 3,, 0.064297
1761, 3,, 0.064764
1762, 3,, 0.064390
1763, 3,, 0.064782
1754, 3,, 0.063939
6391, 3,, 0.063932
6405, 3,, 0.064356
1663, 3,, 0.065217
6396, 3,, 0.063773
6399, 3,, 0.062944
** ... 3574 like lines cut
*EL FILE
S,E
*EL PRINT
COORD,S
*ENDSTEP